code/testcases/IEEE300BusM.RAW
@!IC, SBASE,REV,XFRRAT,NXFRAT,BASFRQ
0,   100.00, 34,     0,     1, 60.00     / PSS(R)E-34.1    FRI, JUN 30 2017  14:43
 13/05/91 CYME INTERNATIONAL    100.0 1991 S
 IEEE 300-BUS TEST SYSTEM
GENERAL, THRSHZ=0.0001, PQBRAK=0.7, BLOWUP=5.0
GAUSS, ITMX=100, ACCP=1.6, ACCQ=1.6, ACCM=1.0, TOL=0.0001
NEWTON, ITMXN=20, ACCN=1.0, TOLN=0.1, VCTOLQ=0.1, VCTOLV=0.00001, DVLIM=0.99, NDVFCT=0.99
ADJUST, ADJTHR=0.005, ACCTAP=1.0, TAPLIM=0.05, SWVBND=100.0, MXTPSS=99, MXSWIM=10
TYSL, ITMXTY=20, ACCTY=1.0, TOLTY=0.00001
SOLVER, FNSL, ACTAPS=0, AREAIN=0, PHSHFT=0, DCTAPS=0, SWSHNT=0, FLATST=0, VARLIM=-1, NONDIV=0
RATING, 1, "RATE1 ", "RATING SET 1                    "
RATING, 2, "RATE2 ", "RATING SET 2                    "
RATING, 3, "RATE3 ", "RATING SET 3                    "
RATING, 4, "RATE4 ", "RATING SET 4                    "
RATING, 5, "RATE5 ", "RATING SET 5                    "
RATING, 6, "RATE6 ", "RATING SET 6                    "
RATING, 7, "RATE7 ", "RATING SET 7                    "
RATING, 8, "RATE8 ", "RATING SET 8                    "
RATING, 9, "RATE9 ", "RATING SET 9                    "
RATING,10, "RATE10", "RATING SET 10                   "
RATING,11, "RATE11", "RATING SET 11                   "
RATING,12, "RATE12", "RATING SET 12                   "
0 / END OF SYSTEM-WIDE DATA, BEGIN BUS DATA
@!   I,'NAME        ', BASKV, IDE,AREA,ZONE,OWNER, VM,        VA,    NVHI,   NVLO,   EVHI,   EVLO
     1,'1           ', 115.0000,1,   1,   1,   1,1.02828,   6.7928,1.10000,0.90000,1.10000,0.90000
     2,'1           ', 115.0000,1,   1,   1,   1,1.03527,   8.5399,1.10000,0.90000,1.10000,0.90000
     3,'1           ', 230.0000,1,   1,   1,   1,0.99670,   7.4861,1.10000,0.90000,1.10000,0.90000
     4,'1           ', 345.0000,1,   1,   1,   1,1.03014,   5.4786,1.10000,0.90000,1.10000,0.90000
     5,'1           ', 115.0000,1,   1,   1,   1,1.01896,   5.5262,1.10000,0.90000,1.10000,0.90000
     6,'1           ', 115.0000,1,   1,   1,   1,1.03110,   7.8027,1.10000,0.90000,1.10000,0.90000
     7,'1           ', 230.0000,1,   1,   1,   1,0.99307,   7.0517,1.10000,0.90000,1.10000,0.90000
     8,'1           ', 115.0000,2,   1,   1,   1,1.01530,   3.1383,1.10000,0.90000,1.10000,0.90000
     9,'1           ', 115.0000,1,   1,   1,   1,1.00330,   3.6760,1.10000,0.90000,1.10000,0.90000
    10,'1           ', 230.0000,2,   1,   1,   1,1.02050,   2.1752,1.10000,0.90000,1.10000,0.90000
    11,'1           ', 115.0000,1,   1,   1,   1,1.00564,   3.2681,1.10000,0.90000,1.10000,0.90000
    12,'1           ', 230.0000,1,   1,   1,   1,0.99715,   6.0574,1.10000,0.90000,1.10000,0.90000
    13,'1           ', 115.0000,1,   1,   1,   1,0.99767,   0.2549,1.10000,0.90000,1.10000,0.90000
    14,'1           ', 115.0000,1,   1,   1,   1,0.99856,  -4.2092,1.10000,0.90000,1.10000,0.90000
    15,'1           ', 115.0000,1,   1,   1,   1,1.03361,  -8.1149,1.10000,0.90000,1.10000,0.90000
    16,'1           ', 345.0000,1,   1,   1,   1,1.03027,  -2.1743,1.10000,0.90000,1.10000,0.90000
    17,'1           ', 115.0000,1,   1,   1,   1,1.06460, -12.6556,1.10000,0.90000,1.10000,0.90000
    19,'1           ', 230.0000,1,   1,   1,   1,0.98157,   1.8615,1.10000,0.90000,1.10000,0.90000
    20,'1           ', 115.0000,2,   1,   1,   1,1.00100,  -1.6498,1.10000,0.90000,1.10000,0.90000
    21,'1           ', 230.0000,1,   1,   1,   1,0.97499,   2.4337,1.10000,0.90000,1.10000,0.90000
    22,'1           ', 115.0000,1,   1,   1,   1,0.99627,  -1.1624,1.10000,0.90000,1.10000,0.90000
    23,'1           ', 115.0000,1,   1,   1,   1,1.05008,   4.7504,1.10000,0.90000,1.10000,0.90000
    24,'1           ', 230.0000,1,   1,   1,   1,1.00559,   6.8327,1.10000,0.90000,1.10000,0.90000
    25,'1           ', 115.0000,1,   1,   1,   1,1.02334,   2.2515,1.10000,0.90000,1.10000,0.90000
    26,'1           ', 115.0000,1,   1,   1,   1,0.99856,  -0.9227,1.10000,0.90000,1.10000,0.90000
    27,'1           ', 115.0000,1,   1,   1,   1,0.97503,  -4.0848,1.10000,0.90000,1.10000,0.90000
    33,'1           ', 115.0000,1,   1,   1,   1,1.02403, -11.9300,1.10000,0.90000,1.10000,0.90000
    34,'1           ', 345.0000,1,   1,   1,   1,1.04053,  -7.8027,1.10000,0.90000,1.10000,0.90000
    35,'1           ', 115.0000,1,   1,   1,   1,0.97564, -25.8731,1.10000,0.90000,1.10000,0.90000
    36,'1           ', 230.0000,1,   1,   1,   1,1.00107, -22.7374,1.10000,0.90000,1.10000,0.90000
    37,'1           ', 115.0000,1,   1,   1,   1,1.01963, -11.1115,1.10000,0.90000,1.10000,0.90000
    38,'1           ', 115.0000,1,   1,   1,   1,1.01982, -12.4787,1.10000,0.90000,1.10000,0.90000
    39,'1           ', 345.0000,1,   1,   1,   1,1.05282,  -5.6692,1.10000,0.90000,1.10000,0.90000
    40,'1           ', 115.0000,1,   1,   1,   1,1.02116, -12.6726,1.10000,0.90000,1.10000,0.90000
    41,'1           ', 115.0000,1,   1,   1,   1,1.02874, -10.3541,1.10000,0.90000,1.10000,0.90000
    42,'1           ', 345.0000,1,   1,   1,   1,1.04400,  -7.3046,1.10000,0.90000,1.10000,0.90000
    43,'1           ', 115.0000,1,   1,   1,   1,1.00060, -16.9039,1.10000,0.90000,1.10000,0.90000
    44,'1           ', 115.0000,1,   1,   1,   1,1.00899, -17.7040,1.10000,0.90000,1.10000,0.90000
    45,'1           ', 230.0000,1,   1,   1,   1,1.02222, -15.0076,1.10000,0.90000,1.10000,0.90000
    46,'1           ', 345.0000,1,   1,   1,   1,1.03369, -11.7961,1.10000,0.90000,1.10000,0.90000
    47,'1           ', 115.0000,1,   1,   1,   1,0.97812, -23.3385,1.10000,0.90000,1.10000,0.90000
    48,'1           ', 115.0000,1,   1,   1,   1,1.00168, -15.9715,1.10000,0.90000,1.10000,0.90000
    49,'1           ', 115.0000,1,   1,   1,   1,1.04739,  -2.9365,1.10000,0.90000,1.10000,0.90000
    51,'1           ', 115.0000,1,   1,   1,   1,1.02504,  -8.2001,1.10000,0.90000,1.10000,0.90000
    52,'1           ', 115.0000,1,   1,   1,   1,0.99797, -12.1679,1.10000,0.90000,1.10000,0.90000
    53,'1           ', 115.0000,1,   1,   1,   1,0.99607, -17.7795,1.10000,0.90000,1.10000,0.90000
    54,'1           ', 115.0000,1,   1,   1,   1,1.00545, -16.5360,1.10000,0.90000,1.10000,0.90000
    55,'1           ', 115.0000,1,   1,   1,   1,1.01561, -12.7089,1.10000,0.90000,1.10000,0.90000
    57,'1           ', 115.0000,1,   1,   1,   1,1.03383,  -9.2321,1.10000,0.90000,1.10000,0.90000
    58,'1           ', 115.0000,1,   1,   1,   1,0.99155,  -7.5441,1.10000,0.90000,1.10000,0.90000
    59,'1           ', 115.0000,1,   1,   1,   1,0.97866,  -6.9385,1.10000,0.90000,1.10000,0.90000
    60,'1           ', 230.0000,1,   1,   1,   1,1.02670, -10.4524,1.10000,0.90000,1.10000,0.90000
    61,'1           ', 115.0000,1,   1,   1,   1,0.99061,  -5.1662,1.10000,0.90000,1.10000,0.90000
    62,'1           ', 230.0000,1,   1,   1,   1,1.01683,  -2.9888,1.10000,0.90000,1.10000,0.90000
    63,'1           ', 115.0000,2,   1,   1,   1,0.95830, -19.3637,1.10000,0.90000,1.10000,0.90000
    64,'1           ', 230.0000,1,   1,   1,   1,0.94838, -14.7477,1.10000,0.90000,1.10000,0.90000
    69,'1           ', 115.0000,1,   1,   1,   1,0.96285, -25.7916,1.10000,0.90000,1.10000,0.90000
    70,'1           ', 115.0000,1,   1,   1,   1,0.95130, -35.3148,1.10000,0.90000,1.10000,0.90000
    71,'1           ', 115.0000,1,   1,   1,   1,0.97938, -30.0354,1.10000,0.90000,1.10000,0.90000
    72,'1           ', 115.0000,1,   1,   1,   1,0.96957, -27.6287,1.10000,0.90000,1.10000,0.90000
    73,'1           ', 115.0000,1,   1,   1,   1,0.97759, -25.9302,1.10000,0.90000,1.10000,0.90000
    74,'1           ', 230.0000,1,   1,   1,   1,0.99662, -22.1744,1.10000,0.90000,1.10000,0.90000
    76,'1           ', 115.0000,2,   1,   1,   1,0.96320, -26.6931,1.10000,0.90000,1.10000,0.90000
    77,'1           ', 115.0000,1,   1,   1,   1,0.98375, -25.0903,1.10000,0.90000,1.10000,0.90000
    78,'1           ', 115.0000,1,   1,   1,   1,0.98997, -24.1998,1.10000,0.90000,1.10000,0.90000
    79,'1           ', 115.0000,1,   1,   1,   1,0.98198, -25.1239,1.10000,0.90000,1.10000,0.90000
    80,'1           ', 115.0000,1,   1,   1,   1,0.98717, -25.1111,1.10000,0.90000,1.10000,0.90000
    81,'1           ', 345.0000,1,   1,   1,   1,1.03365, -19.0022,1.10000,0.90000,1.10000,0.90000
    84,'1           ', 115.0000,2,   1,   1,   1,1.02500, -17.3127,1.10000,0.90000,1.10000,0.90000
    85,'1           ', 230.0000,1,   1,   1,   1,0.98687, -17.3588,1.10000,0.90000,1.10000,0.90000
    86,'1           ', 230.0000,1,   1,   1,   1,0.99045, -13.7947,1.10000,0.90000,1.10000,0.90000
    87,'1           ', 230.0000,1,   1,   1,   1,0.99136,  -7.2067,1.10000,0.90000,1.10000,0.90000
    88,'1           ', 230.0000,1,   1,   1,   1,1.01505, -21.0997,1.10000,0.90000,1.10000,0.90000
    89,'1           ', 115.0000,1,   1,   1,   1,1.03136, -10.8010,1.10000,0.90000,1.10000,0.90000
    90,'1           ', 115.0000,1,   1,   1,   1,1.02691, -11.0087,1.10000,0.90000,1.10000,0.90000
    91,'1           ', 115.0000,2,   1,   1,   1,1.05200,  -9.0367,1.10000,0.90000,1.10000,0.90000
    92,'1           ', 115.0000,2,   1,   1,   1,1.05200,  -5.9614,1.10000,0.90000,1.10000,0.90000
    94,'1           ', 115.0000,1,   1,   1,   1,0.99268,  -8.9004,1.10000,0.90000,1.10000,0.90000
    97,'1           ', 115.0000,1,   1,   1,   1,1.01814, -12.8846,1.10000,0.90000,1.10000,0.90000
    98,'1           ', 115.0000,2,   1,   1,   1,1.00000, -14.2479,1.10000,0.90000,1.10000,0.90000
    99,'1           ', 115.0000,1,   1,   1,   1,0.98935, -20.0018,1.10000,0.90000,1.10000,0.90000
   100,'1           ', 115.0000,1,   1,   1,   1,1.00593, -14.0882,1.10000,0.90000,1.10000,0.90000
   102,'1           ', 115.0000,1,   1,   1,   1,1.00063, -14.8691,1.10000,0.90000,1.10000,0.90000
   103,'1           ', 115.0000,1,   1,   1,   1,1.02863, -11.8009,1.10000,0.90000,1.10000,0.90000
   104,'1           ', 115.0000,1,   1,   1,   1,0.99566, -16.9950,1.10000,0.90000,1.10000,0.90000
   105,'1           ', 115.0000,1,   1,   1,   1,1.02214, -12.7103,1.10000,0.90000,1.10000,0.90000
   107,'1           ', 115.0000,1,   1,   1,   1,1.00938, -15.8378,1.10000,0.90000,1.10000,0.90000
   108,'1           ', 115.0000,2,   1,   1,   1,0.99000, -19.9896,1.10000,0.90000,1.10000,0.90000
   109,'1           ', 115.0000,1,   1,   1,   1,0.97495, -25.9507,1.10000,0.90000,1.10000,0.90000
   110,'1           ', 115.0000,1,   1,   1,   1,0.97291, -24.5378,1.10000,0.90000,1.10000,0.90000
   112,'1           ', 115.0000,1,   1,   1,   1,0.97254, -28.6126,1.10000,0.90000,1.10000,0.90000
   113,'1           ', 115.0000,1,   1,   1,   1,0.97033, -25.4668,1.10000,0.90000,1.10000,0.90000
   114,'1           ', 115.0000,1,   1,   1,   1,0.97470, -28.5180,1.10000,0.90000,1.10000,0.90000
   115,'2           ', 115.0000,1,   2,   2,   1,0.95029,  10.6595,1.10000,0.90000,1.10000,0.90000
   116,'2           ', 115.0000,1,   2,   2,   1,1.03464,  17.4408,1.10000,0.90000,1.10000,0.90000
   117,'2           ', 115.0000,1,   2,   2,   1,0.93633,  23.2838,1.10000,0.90000,1.10000,0.90000
   118,'2           ', 115.0000,1,   2,   2,   1,0.92996,  24.3687,1.10000,0.90000,1.10000,0.90000
   119,'2           ', 115.0000,2,   2,   2,   1,1.04350,  38.7245,1.10000,0.90000,1.10000,0.90000
   120,'2           ', 115.0000,1,   2,   2,   1,1.01262,  35.3912,1.10000,0.90000,1.10000,0.90000
   121,'2           ', 115.0000,1,   2,   2,   1,0.87177,  13.7390,1.10000,0.90000,1.10000,0.90000
   122,'2           ', 115.0000,1,   2,   2,   1,0.93217,   8.5202,1.10000,0.90000,1.10000,0.90000
   123,'2           ', 115.0000,1,   2,   2,   1,0.98051,   3.9578,1.10000,0.90000,1.10000,0.90000
   124,'2           ', 115.0000,2,   2,   2,   1,1.02330,  14.3093,1.10000,0.90000,1.10000,0.90000
   125,'2           ', 115.0000,2,   2,   2,   1,1.01030,  -5.5810,1.10000,0.90000,1.10000,0.90000
   126,'2           ', 115.0000,1,   2,   2,   1,0.98561,  -1.3468,1.10000,0.90000,1.10000,0.90000
   127,'2           ', 230.0000,1,   2,   2,   1,0.99671,  -6.5225,1.10000,0.90000,1.10000,0.90000
   128,'2           ', 230.0000,1,   2,   2,   1,1.00186,  -4.5688,1.10000,0.90000,1.10000,0.90000
   129,'2           ', 230.0000,1,   2,   2,   1,1.00122,  -3.7556,1.10000,0.90000,1.10000,0.90000
   130,'2           ', 230.0000,1,   2,   2,   1,1.01868,   6.6724,1.10000,0.90000,1.10000,0.90000
   131,'2           ', 230.0000,1,   2,   2,   1,0.98591,   6.9884,1.10000,0.90000,1.10000,0.90000
   132,'2           ', 230.0000,1,   2,   2,   1,1.00552,   4.9449,1.10000,0.90000,1.10000,0.90000
   133,'2           ', 230.0000,1,   2,   2,   1,1.00147,  -6.7492,1.10000,0.90000,1.10000,0.90000
   134,'2           ', 230.0000,1,   2,   2,   1,1.02262,  -5.6877,1.10000,0.90000,1.10000,0.90000
   135,'2           ', 230.0000,1,   2,   2,   1,1.02258,  -5.8101,1.10000,0.90000,1.10000,0.90000
   136,'2           ', 230.0000,1,   2,   2,   1,1.04943,  -0.4866,1.10000,0.90000,1.10000,0.90000
   137,'2           ', 230.0000,1,   2,   2,   1,1.04510,  -6.7357,1.10000,0.90000,1.10000,0.90000
   138,'2           ', 230.0000,2,   2,   2,   1,1.05500, -16.1388,1.10000,0.90000,1.10000,0.90000
   139,'2           ', 115.0000,1,   2,   2,   1,1.01109,  -8.6406,1.10000,0.90000,1.10000,0.90000
   140,'2           ', 230.0000,1,   2,   2,   1,1.04154,  -8.5234,1.10000,0.90000,1.10000,0.90000
   141,'2           ', 230.0000,2,   2,   2,   1,1.05100,  -4.8268,1.10000,0.90000,1.10000,0.90000
   142,'2           ', 230.0000,1,   2,   2,   1,1.01394,  -6.9232,1.10000,0.90000,1.10000,0.90000
   143,'2           ', 230.0000,2,   2,   2,   1,1.04350,   0.3832,1.10000,0.90000,1.10000,0.90000
   144,'2           ', 230.0000,1,   2,   2,   1,1.01668,  -2.7237,1.10000,0.90000,1.10000,0.90000
   145,'2           ', 230.0000,1,   2,   2,   1,1.00795,  -4.2527,1.10000,0.90000,1.10000,0.90000
   146,'2           ', 230.0000,2,   2,   2,   1,1.05280,  -0.1194,1.10000,0.90000,1.10000,0.90000
   147,'2           ', 230.0000,2,   2,   2,   1,1.05280,   3.8427,1.10000,0.90000,1.10000,0.90000
   148,'2           ', 230.0000,1,   2,   2,   1,1.05777,  -3.4547,1.10000,0.90000,1.10000,0.90000
   149,'2           ', 230.0000,2,   2,   2,   1,1.07350,   1.4148,1.10000,0.90000,1.10000,0.90000
   150,'2           ', 230.0000,1,   2,   2,   1,0.98668,   7.2715,1.10000,0.90000,1.10000,0.90000
   151,'2           ', 230.0000,1,   2,   2,   1,1.00476,   5.3647,1.10000,0.90000,1.10000,0.90000
   152,'2           ', 230.0000,2,   2,   2,   1,1.05350,   6.8394,1.10000,0.90000,1.10000,0.90000
   153,'2           ', 230.0000,2,   2,   2,   1,1.04350,   7.1207,1.10000,0.90000,1.10000,0.90000
   154,'2           ', 115.0000,1,   2,   2,   1,0.96721,  -5.5180,1.10000,0.90000,1.10000,0.90000
   155,'2           ', 230.0000,1,   2,   2,   1,1.01670,   2.6231,1.10000,0.90000,1.10000,0.90000
   156,'2           ', 115.0000,2,   2,   2,   1,0.96300,   1.0407,1.10000,0.90000,1.10000,0.90000
   157,'2           ', 230.0000,1,   2,   2,   1,0.94901,  10.1516,1.10000,0.90000,1.10000,0.90000
   158,'2           ', 230.0000,1,   2,   2,   1,0.96317,   9.7116,1.10000,0.90000,1.10000,0.90000
   159,'2           ', 230.0000,1,   2,   2,   1,0.93594,  14.1853,1.10000,0.90000,1.10000,0.90000
   160,'2           ', 230.0000,1,   2,   2,   1,0.98632,  12.1906,1.10000,0.90000,1.10000,0.90000
   161,'2           ', 230.0000,1,   2,   2,   1,1.03552,   5.2441,1.10000,0.90000,1.10000,0.90000
   162,'2           ', 230.0000,1,   2,   2,   1,0.99062,  14.1770,1.10000,0.90000,1.10000,0.90000
   163,'2           ', 230.0000,1,   2,   2,   1,1.03739,  -1.9944,1.10000,0.90000,1.10000,0.90000
   164,'2           ', 230.0000,1,   2,   2,   1,0.98212,   5.3134,1.10000,0.90000,1.10000,0.90000
   165,'2           ', 230.0000,1,   2,   2,   1,0.99956,  21.9974,1.10000,0.90000,1.10000,0.90000
   166,'2           ', 230.0000,1,   2,   2,   1,0.99689,  25.9128,1.10000,0.90000,1.10000,0.90000
   167,'2           ', 230.0000,1,   2,   2,   1,0.96905,  -6.2635,1.10000,0.90000,1.10000,0.90000
   168,'2           ', 230.0000,1,   2,   2,   1,1.00190,  -4.5938,1.10000,0.90000,1.10000,0.90000
   169,'2           ', 230.0000,1,   2,   2,   1,0.98544,  -6.1321,1.10000,0.90000,1.10000,0.90000
   170,'2           ', 115.0000,2,   2,   2,   1,0.92900,   1.6534,1.10000,0.90000,1.10000,0.90000
   171,'2           ', 115.0000,2,   2,   2,   1,0.98290, -11.2270,1.10000,0.90000,1.10000,0.90000
   172,'2           ', 115.0000,1,   2,   2,   1,1.02443, -11.0990,1.10000,0.90000,1.10000,0.90000
   173,'2           ', 115.0000,1,   2,   2,   1,0.98330, -17.2835,1.10000,0.90000,1.10000,0.90000
   174,'2           ', 115.0000,1,   2,   2,   1,1.06219,  -7.5276,1.10000,0.90000,1.10000,0.90000
   175,'2           ', 115.0000,1,   2,   2,   1,0.97335, -11.3975,1.10000,0.90000,1.10000,0.90000
   176,'2           ', 115.0000,2,   2,   2,   1,1.05220,   0.4946,1.10000,0.90000,1.10000,0.90000
   177,'2           ', 115.0000,2,   2,   2,   1,1.00770,  -3.4881,1.10000,0.90000,1.10000,0.90000
   178,'2           ', 115.0000,1,   2,   2,   1,0.93955, -10.6016,1.10000,0.90000,1.10000,0.90000
   179,'2           ', 115.0000,1,   2,   2,   1,0.96960, -13.3757,1.10000,0.90000,1.10000,0.90000
   180,'2           ', 115.0000,1,   2,   2,   1,0.97912,  -7.1670,1.10000,0.90000,1.10000,0.90000
   181,'2           ', 230.0000,1,   2,   2,   1,1.04867,  -7.2506,1.10000,0.90000,1.10000,0.90000
   182,'2           ', 230.0000,1,   2,   2,   1,1.04348,  -9.2733,1.10000,0.90000,1.10000,0.90000
   183,'2           ', 115.0000,1,   2,   2,   1,0.97178,   3.7188,1.10000,0.90000,1.10000,0.90000
   184,'2           ', 230.0000,1,   2,   2,   1,1.03880,  -4.4890,1.10000,0.90000,1.10000,0.90000
   185,'2           ', 230.0000,2,   2,   2,   1,1.05220,  -1.9739,1.10000,0.90000,1.10000,0.90000
   186,'2           ', 230.0000,2,   2,   2,   1,1.06500,  -3.4864,1.10000,0.90000,1.10000,0.90000
   187,'2           ', 230.0000,2,   2,   2,   1,1.06500,  -4.5039,1.10000,0.90000,1.10000,0.90000
   188,'2           ', 230.0000,1,   2,   2,   1,1.05072,  -6.5925,1.10000,0.90000,1.10000,0.90000
   189,'3           ',  66.0000,1,   3,   3,   1,0.99746, -25.9474,1.10000,0.90000,1.10000,0.90000
   190,'3           ', 345.0000,2,   3,   3,   1,1.05510, -20.7474,1.10000,0.90000,1.10000,0.90000
   191,'3           ', 230.0000,2,   3,   3,   1,1.04350,  12.0862,1.10000,0.90000,1.10000,0.90000
   192,'3           ', 230.0000,1,   3,   3,   1,0.93804, -11.3283,1.10000,0.90000,1.10000,0.90000
   193,'3           ',  66.0000,1,   3,   3,   1,0.98943, -26.1888,1.10000,0.90000,1.10000,0.90000
   194,'3           ', 345.0000,1,   3,   3,   1,1.04854, -19.3334,1.10000,0.90000,1.10000,0.90000
   195,'3           ', 345.0000,1,   3,   3,   1,1.03548, -20.9109,1.10000,0.90000,1.10000,0.90000
   196,'3           ', 115.0000,1,   3,   3,   1,0.96955, -25.4344,1.10000,0.90000,1.10000,0.90000
   197,'3           ', 115.0000,1,   3,   3,   1,0.99069, -23.8369,1.10000,0.90000,1.10000,0.90000
   198,'3           ', 115.0000,2,   3,   3,   1,1.01500, -20.7033,1.10000,0.90000,1.10000,0.90000
   199,'3           ', 115.0000,1,   3,   3,   1,0.95286, -26.1624,1.10000,0.90000,1.10000,0.90000
   200,'3           ', 115.0000,1,   3,   3,   1,0.95510, -26.0520,1.10000,0.90000,1.10000,0.90000
   201,'1           ',  66.0000,1,   1,   1,   1,0.96885, -27.6126,1.10000,0.90000,1.10000,0.90000
   202,'3           ',  66.0000,1,   3,   3,   1,0.99078, -25.4540,1.10000,0.90000,1.10000,0.90000
   203,'3           ', 115.0000,1,   3,   3,   1,1.00330, -22.4719,1.10000,0.90000,1.10000,0.90000
   204,'3           ',  66.0000,1,   3,   3,   1,0.97128, -25.7986,1.10000,0.90000,1.10000,0.90000
   205,'3           ',  66.0000,1,   3,   3,   1,0.98345, -26.1583,1.10000,0.90000,1.10000,0.90000
   206,'3           ',  66.0000,1,   3,   3,   1,0.99926, -27.4233,1.10000,0.90000,1.10000,0.90000
   207,'1           ',  66.0000,1,   1,   1,   1,1.01404, -27.4204,1.10000,0.90000,1.10000,0.90000
   208,'3           ',  66.0000,1,   3,   3,   1,0.99270, -26.3680,1.10000,0.90000,1.10000,0.90000
   209,'3           ',  66.0000,1,   3,   3,   1,0.99986, -25.7633,1.10000,0.90000,1.10000,0.90000
   210,'3           ', 115.0000,1,   3,   3,   1,0.97883, -24.3365,1.10000,0.90000,1.10000,0.90000
   211,'3           ', 115.0000,1,   3,   3,   1,1.00158, -23.4373,1.10000,0.90000,1.10000,0.90000
   212,'3           ', 138.0000,1,   3,   3,   1,1.01307, -22.6304,1.10000,0.90000,1.10000,0.90000
   213,'3           ',  16.5000,2,   3,   3,   1,1.01000, -11.7986,1.10000,0.90000,1.10000,0.90000
   214,'3           ', 138.0000,1,   3,   3,   1,0.99185, -17.6574,1.10000,0.90000,1.10000,0.90000
   215,'3           ', 138.0000,1,   3,   3,   1,0.98657, -20.3581,1.10000,0.90000,1.10000,0.90000
   216,'3           ', 138.0000,1,   3,   3,   1,0.97503, -22.6545,1.10000,0.90000,1.10000,0.90000
   217,'3           ', 138.0000,1,   3,   3,   1,1.02129, -22.3243,1.10000,0.90000,1.10000,0.90000
   218,'3           ', 138.0000,1,   3,   3,   1,1.00726, -22.7537,1.10000,0.90000,1.10000,0.90000
   219,'3           ', 345.0000,1,   3,   3,   1,1.05505, -21.2740,1.10000,0.90000,1.10000,0.90000
   220,'3           ', 138.0000,2,   3,   3,   1,1.00800, -21.8527,1.10000,0.90000,1.10000,0.90000
   221,'3           ', 138.0000,2,   3,   3,   1,1.00000, -22.6167,1.10000,0.90000,1.10000,0.90000
...
0 / END OF BUS DATA, BEGIN LOAD DATA
@!   I,'ID',STAT,AREA,ZONE,      PL,        QL,        IP,        IQ,        YP,        YQ, OWNER,SCALE,INTRPT,  DGENP,     DGENQ, DGENF
     1,'1 ',   1,   1,   1,    90.000,    49.000,     0.000,     0.000,     0.000,     0.000,   1,    1,  0,     0.000,     0.000,   0
     2,'1 ',   1,   1,   1,    56.000,    15.000,     0.000,     0.000,     0.000,     0.000,   1,    1,  0,     0.000,     0.000,   0
     3,'1 ',   1,   1,   1,    20.000,     0.000,     0.000,     0.000,     0.000,     0.000,   1,    1,  0,     0.000,     0.000,   0
     5,'1 ',   1,   1,   1,   353.000,   130.000,     0.000,     0.000,     0.000,     0.000,   1,    1,  0,     0.000,     0.000,   0
     6,'1 ',   1,   1,   1,   120.000,    41.000,     0.000,     0.000,     0.000,     0.000,   1,    1,  0,     0.000,     0.000,   0
     8,'1 ',   1,   1,   1,    58.000,    14.000,     0.000,     0.000,     0.000,     0.000,   1,    1,  0,     0.000,     0.000,   0
     9,'1 ',   1,   1,   1,    96.000,    43.000,     0.000,     0.000,     0.000,     0.000,   1,    1,  0,     0.000,     0.000,   0
    10,'1 ',   1,   1,   1,   148.000,    33.000,     0.000,     0.000,     0.000,     0.000,   1,    1,  0,     0.000,     0.000,   0
    11,'1 ',   1,   1,   1,    83.000,    21.000,     0.000,     0.000,     0.000,     0.000,   1,    1,  0,     0.000,     0.000,   0
    13,'1 ',   1,   1,   1,    58.000,    10.000,     0.000,     0.000,     0.000,     0.000,   1,    1,  0,     0.000,     0.000,   0
    14,'1 ',   1,   1,   1,   160.000,    60.000,     0.000,     0.000,     0.000,     0.000,   1,    1,  0,     0.000,     0.000,   0
    15,'1 ',   1,   1,   1,   126.700,    23.000,     0.000,     0.000,     0.000,     0.000,   1,    1,  0,     0.000,     0.000,   0
    17,'1 ',   1,   1,   1,   561.000,   220.000,     0.000,     0.000,     0.000,     0.000,   1,    1,  0,     0.000,     0.000,   0
    20,'1 ',   1,   1,   1,   595.000,   120.000,     0.000,     0.000,     0.000,     0.000,   1,    1,  0,     0.000,     0.000,   0
    21,'1 ',   1,   1,   1,    77.000,     1.000,     0.000,     0.000,     0.000,     0.000,   1,    1,  0,     0.000,     0.000,   0
    22,'1 ',   1,   1,   1,    81.000,    23.000,     0.000,     0.000,     0.000,     0.000,   1,    1,  0,     0.000,     0.000,   0
    23,'1 ',   1,   1,   1,    21.000,     7.000,     0.000,     0.000,     0.000,     0.000,   1,    1,  0,     0.000,     0.000,   0
    25,'1 ',   1,   1,   1,    45.000,    12.000,     0.000,     0.000,     0.000,     0.000,   1,    1,  0,     0.000,     0.000,   0
    26,'1 ',   1,   1,   1,    28.000,     9.000,     0.000,     0.000,     0.000,     0.000,   1,    1,  0,     0.000,     0.000,   0
    27,'1 ',   1,   1,   1,    69.000,    13.000,     0.000,     0.000,     0.000,     0.000,   1,    1,  0,     0.000,     0.000,   0
    33,'1 ',   1,   1,   1,    55.000,     6.000,     0.000,     0.000,     0.000,     0.000,   1,    1,  0,     0.000,     0.000,   0
    37,'1 ',   1,   1,   1,    85.000,    32.000,     0.000,     0.000,     0.000,     0.000,   1,    1,  0,     0.000,     0.000,   0
    38,'1 ',   1,   1,   1,   155.000,    18.000,     0.000,     0.000,     0.000,     0.000,   1,    1,  0,     0.000,     0.000,   0
    40,'1 ',   1,   1,   1,    46.000,   -21.000,     0.000,     0.000,     0.000,     0.000,   1,    1,  0,     0.000,     0.000,   0
    41,'1 ',   1,   1,   1,    86.000,     0.000,     0.000,     0.000,     0.000,     0.000,   1,    1,  0,     0.000,     0.000,   0
    43,'1 ',   1,   1,   1,    39.000,     9.000,     0.000,     0.000,     0.000,     0.000,   1,    1,  0,     0.000,     0.000,   0
    44,'1 ',   1,   1,   1,   195.000,    29.000,     0.000,     0.000,     0.000,     0.000,   1,    1,  0,     0.000,     0.000,   0
    47,'1 ',   1,   1,   1,    58.000,    11.800,     0.000,     0.000,     0.000,     0.000,   1,    1,  0,     0.000,     0.000,   0
    48,'1 ',   1,   1,   1,    41.000,    19.000,     0.000,     0.000,     0.000,     0.000,   1,    1,  0,     0.000,     0.000,   0
    49,'1 ',   1,   1,   1,    92.000,    26.000,     0.000,     0.000,     0.000,     0.000,   1,    1,  0,     0.000,     0.000,   0
    51,'1 ',   1,   1,   1,    -5.000,     5.000,     0.000,     0.000,     0.000,     0.000,   1,    1,  0,     0.000,     0.000,   0
    52,'1 ',   1,   1,   1,    61.000,    28.000,     0.000,     0.000,     0.000,     0.000,   1,    1,  0,     0.000,     0.000,   0
    53,'1 ',   1,   1,   1,    69.000,     3.000,     0.000,     0.000,     0.000,     0.000,   1,    1,  0,     0.000,     0.000,   0
    54,'1 ',   1,   1,   1,    10.000,     1.000,     0.000,     0.000,     0.000,     0.000,   1,    1,  0,     0.000,     0.000,   0
    55,'1 ',   1,   1,   1,    22.000,    10.000,     0.000,     0.000,     0.000,     0.000,   1,    1,  0,     0.000,     0.000,   0
    57,'1 ',   1,   1,   1,    98.000,    20.000,     0.000,     0.000,     0.000,     0.000,   1,    1,  0,     0.000,     0.000,   0
    58,'1 ',   1,   1,   1,    14.000,     1.000,     0.000,     0.000,     0.000,     0.000,   1,    1,  0,     0.000,     0.000,   0
    59,'1 ',   1,   1,   1,   218.000,   106.000,     0.000,     0.000,     0.000,     0.000,   1,    1,  0,     0.000,     0.000,   0
    61,'1 ',   1,   1,   1,   227.000,   110.000,     0.000,     0.000,     0.000,     0.000,   1,    1,  0,     0.000,     0.000,   0
    63,'1 ',   1,   1,   1,    70.000,    30.000,     0.000,     0.000,     0.000,     0.000,   1,    1,  0,     0.000,     0.000,   0
    70,'1 ',   1,   1,   1,    56.000,    20.000,     0.000,     0.000,     0.000,     0.000,   1,    1,  0,     0.000,     0.000,   0
    71,'1 ',   1,   1,   1,   116.000,    38.000,     0.000,     0.000,     0.000,     0.000,   1,    1,  0,     0.000,     0.000,   0
    72,'1 ',   1,   1,   1,    57.000,    19.000,     0.000,     0.000,     0.000,     0.000,   1,    1,  0,     0.000,     0.000,   0
    73,'1 ',   1,   1,   1,   224.000,    71.000,     0.000,     0.000,     0.000,     0.000,   1,    1,  0,     0.000,     0.000,   0
    76,'1 ',   1,   1,   1,   208.000,   107.000,     0.000,     0.000,     0.000,     0.000,   1,    1,  0,     0.000,     0.000,   0
    77,'1 ',   1,   1,   1,    74.000,    28.000,     0.000,     0.000,     0.000,     0.000,   1,    1,  0,     0.000,     0.000,   0
    79,'1 ',   1,   1,   1,    48.000,    14.000,     0.000,     0.000,     0.000,     0.000,   1,    1,  0,     0.000,     0.000,   0
    80,'1 ',   1,   1,   1,    28.000,     7.000,     0.000,     0.000,     0.000,     0.000,   1,    1,  0,     0.000,     0.000,   0
    84,'1 ',   1,   1,   1,    37.000,    13.000,     0.000,     0.000,     0.000,     0.000,   1,    1,  0,     0.000,     0.000,   0
    89,'1 ',   1,   1,   1,    44.200,     0.000,     0.000,     0.000,     0.000,     0.000,   1,    1,  0,     0.000,     0.000,   0
    90,'1 ',   1,   1,   1,    66.000,     0.000,     0.000,     0.000,     0.000,     0.000,   1,    1,  0,     0.000,     0.000,   0
    91,'1 ',   1,   1,   1,    17.400,     0.000,     0.000,     0.000,     0.000,     0.000,   1,    1,  0,     0.000,     0.000,   0
    92,'1 ',   1,   1,   1,    15.800,     0.000,     0.000,     0.000,     0.000,     0.000,   1,    1,  0,     0.000,     0.000,   0
    94,'1 ',   1,   1,   1,    60.300,     0.000,     0.000,     0.000,     0.000,     0.000,   1,    1,  0,     0.000,     0.000,   0
    97,'1 ',   1,   1,   1,    39.900,     0.000,     0.000,     0.000,     0.000,     0.000,   1,    1,  0,     0.000,     0.000,   0
    98,'1 ',   1,   1,   1,    66.700,     0.000,     0.000,     0.000,     0.000,     0.000,   1,    1,  0,     0.000,     0.000,   0
    99,'1 ',   1,   1,   1,    83.500,     0.000,     0.000,     0.000,     0.000,     0.000,   1,    1,  0,     0.000,     0.000,   0
   102,'1 ',   1,   1,   1,    77.800,     0.000,     0.000,     0.000,     0.000,     0.000,   1,    1,  0,     0.000,     0.000,   0
   103,'1 ',   1,   1,   1,    32.000,     0.000,     0.000,     0.000,     0.000,     0.000,   1,    1,  0,     0.000,     0.000,   0
   104,'1 ',   1,   1,   1,     8.600,     0.000,     0.000,     0.000,     0.000,     0.000,   1,    1,  0,     0.000,     0.000,   0
   105,'1 ',   1,   1,   1,    49.600,     0.000,     0.000,     0.000,     0.000,     0.000,   1,    1,  0,     0.000,     0.000,   0
   107,'1 ',   1,   1,   1,     4.600,     0.000,     0.000,     0.000,     0.000,     0.000,   1,    1,  0,     0.000,     0.000,   0
   108,'1 ',   1,   1,   1,   112.100,     0.000,     0.000,     0.000,     0.000,     0.000,   1,    1,  0,     0.000,     0.000,   0
   109,'1 ',   1,   1,   1,    30.700,     0.000,     0.000,     0.000,     0.000,     0.000,   1,    1,  0,     0.000,     0.000,   0
   110,'1 ',   1,   1,   1,    63.000,     0.000,     0.000,     0.000,     0.000,     0.000,   1,    1,  0,     0.000,     0.000,   0
   112,'1 ',   1,   1,   1,    19.600,     0.000,     0.000,     0.000,     0.000,     0.000,   1,    1,  0,     0.000,     0.000,   0
   113,'1 ',   1,   1,   1,    26.200,     0.000,     0.000,     0.000,     0.000,     0.000,   1,    1,  0,     0.000,     0.000,   0
   114,'1 ',   1,   1,   1,    18.200,     0.000,     0.000,     0.000,     0.000,     0.000,   1,    1,  0,     0.000,     0.000,   0
   118,'1 ',   1,   2,   2,    14.100,   650.000,     0.000,     0.000,     0.000,     0.000,   1,    1,  0,     0.000,     0.000,   0
   121,'1 ',   1,   2,   2,   535.000,    55.000,     0.000,     0.000,     0.000,     0.000,   1,    1,  0,     0.000,     0.000,   0
   122,'1 ',   1,   2,   2,   229.100,    11.800,     0.000,     0.000,     0.000,     0.000,   1,    1,  0,     0.000,     0.000,   0
   123,'1 ',   1,   2,   2,    78.000,     1.400,     0.000,     0.000,     0.000,     0.000,   1,    1,  0,     0.000,     0.000,   0
   124,'1 ',   1,   2,   2,   276.400,    59.300,     0.000,     0.000,     0.000,     0.000,   1,    1,  0,     0.000,     0.000,   0
   125,'1 ',   1,   2,   2,   514.800,    82.700,     0.000,     0.000,     0.000,     0.000,   1,    1,  0,     0.000,     0.000,   0
   126,'1 ',   1,   2,   2,    57.900,     5.100,     0.000,     0.000,     0.000,     0.000,   1,    1,  0,     0.000,     0.000,   0
   127,'1 ',   1,   2,   2,   380.800,    37.000,     0.000,     0.000,     0.000,     0.000,   1,    1,  0,     0.000,     0.000,   0
   135,'1 ',   1,   2,   2,   169.200,    41.600,     0.000,     0.000,     0.000,     0.000,   1,    1,  0,     0.000,     0.000,   0
   136,'1 ',   1,   2,   2,    55.200,    18.200,     0.000,     0.000,     0.000,     0.000,   1,    1,  0,     0.000,     0.000,   0
   137,'1 ',   1,   2,   2,   273.600,    99.800,     0.000,     0.000,     0.000,     0.000,   1,    1,  0,     0.000,     0.000,   0
   138,'1 ',   1,   2,   2,   826.700,   135.200,     0.000,     0.000,     0.000,     0.000,   1,    1,  0,     0.000,     0.000,   0
   139,'1 ',   1,   2,   2,   595.000,    83.300,     0.000,     0.000,     0.000,     0.000,   1,    1,  0,     0.000,     0.000,   0
   140,'1 ',   1,   2,   2,   387.700,   114.700,     0.000,     0.000,     0.000,     0.000,   1,    1,  0,     0.000,     0.000,   0
   141,'1 ',   1,   2,   2,   145.000,    58.000,     0.000,     0.000,     0.000,     0.000,   1,    1,  0,     0.000,     0.000,   0
   142,'1 ',   1,   2,   2,    56.500,    24.500,     0.000,     0.000,     0.000,     0.000,   1,    1,  0,     0.000,     0.000,   0
   143,'1 ',   1,   2,   2,    89.500,    35.500,     0.000,     0.000,     0.000,     0.000,   1,    1,  0,     0.000,     0.000,   0
   145,'1 ',   1,   2,   2,    24.000,    14.000,     0.000,     0.000,     0.000,     0.000,   1,    1,  0,     0.000,     0.000,   0
   148,'1 ',   1,   2,   2,    63.000,    25.000,     0.000,     0.000,     0.000,     0.000,   1,    1,  0,     0.000,     0.000,   0
   152,'1 ',   1,   2,   2,    17.000,     9.000,     0.000,     0.000,     0.000,     0.000,   1,    1,  0,     0.000,     0.000,   0
   154,'1 ',   1,   2,   2,    70.000,     5.000,     0.000,     0.000,     0.000,     0.000,   1,    1,  0,     0.000,     0.000,   0
   155,'1 ',   1,   2,   2,   200.000,    50.000,     0.000,     0.000,     0.000,     0.000,   1,    1,  0,     0.000,     0.000,   0
   156,'1 ',   1,   2,   2,    75.000,    50.000,     0.000,     0.000,     0.000,     0.000,   1,    1,  0,     0.000,     0.000,   0
   157,'1 ',   1,   2,   2,   123.500,   -24.300,     0.000,     0.000,     0.000,     0.000,   1,    1,  0,     0.000,     0.000,   0
   159,'1 ',   1,   2,   2,    33.000,    16.500,     0.000,     0.000,     0.000,     0.000,   1,    1,  0,     0.000,     0.000,   0
   161,'1 ',   1,   2,   2,    35.000,    15.000,     0.000,     0.000,     0.000,     0.000,   1,    1,  0,     0.000,     0.000,   0
   162,'1 ',   1,   2,   2,    85.000,    24.000,     0.000,     0.000,     0.000,     0.000,   1,    1,  0,     0.000,     0.000,   0
   163,'1 ',   1,   2,   2,     0.000,     0.400,     0.000,     0.000,     0.000,     0.000,   1,    1,  0,     0.000,     0.000,   0
   167,'1 ',   1,   2,   2,   299.900,    95.700,     0.000,     0.000,     0.000,     0.000,   1,    1,  0,     0.000,     0.000,   0
   170,'1 ',   1,   2,   2,   481.800,   205.000,     0.000,     0.000,     0.000,     0.000,   1,    1,  0,     0.000,     0.000,   0
   171,'1 ',   1,   2,   2,   763.600,   291.100,     0.000,     0.000,     0.000,     0.000,   1,    1,  0,     0.000,     0.000,   0
   172,'1 ',   1,   2,   2,    26.500,     0.000,     0.000,     0.000,     0.000,     0.000,   1,    1,  0,     0.000,     0.000,   0
   173,'1 ',   1,   2,   2,   163.500,    43.000,     0.000,     0.000,     0.000,     0.000,   1,    1,  0,     0.000,     0.000,   0
   175,'1 ',   1,   2,   2,   176.000,    83.000,     0.000,     0.000,     0.000,     0.000,   1,    1,  0,     0.000,     0.000,   0
   176,'1 ',   1,   2,   2,     5.000,     4.000,     0.000,     0.000,     0.000,     0.000,   1,    1,  0,     0.000,     0.000,   0
   177,'1 ',   1,   2,   2,    28.000,    12.000,     0.000,     0.000,     0.000,     0.000,   1,    1,  0,     0.000,     0.000,   0
   178,'1 ',   1,   2,   2,   427.400,   173.600,     0.000,     0.000,     0.000,     0.000,   1,    1,  0,     0.000,     0.000,   0
   179,'1 ',   1,   2,   2,    74.000,    29.000,     0.000,     0.000,     0.000,     0.000,   1,    1,  0,     0.000,     0.000,   0
   180,'1 ',   1,   2,   2,    69.500,    49.300,     0.000,     0.000,     0.000,     0.000,   1,    1,  0,     0.000,     0.000,   0
   181,'1 ',   1,   2,   2,    73.400,     0.000,     0.000,     0.000,     0.000,     0.000,   1,    1,  0,     0.000,     0.000,   0
   182,'1 ',   1,   2,   2,   240.700,    89.000,     0.000,     0.000,     0.000,     0.000,   1,    1,  0,     0.000,     0.000,   0
   183,'1 ',   1,   2,   2,    40.000,     4.000,     0.000,     0.000,     0.000,     0.000,   1,    1,  0,     0.000,     0.000,   0
   184,'1 ',   1,   2,   2,   136.800,    16.600,     0.000,     0.000,     0.000,     0.000,   1,    1,  0,     0.000,     0.000,   0
   186,'1 ',   1,   2,   2,    59.800,    24.300,     0.000,     0.000,     0.000,     0.000,   1,    1,  0,     0.000,     0.000,   0
   187,'1 ',   1,   2,   2,    59.800,    24.300,     0.000,     0.000,     0.000,     0.000,   1,    1,  0,     0.000,     0.000,   0
   188,'1 ',   1,   2,   2,   182.600,    43.600,     0.000,     0.000,     0.000,     0.000,   1,    1,  0,     0.000,     0.000,   0
   189,'1 ',   1,   3,   3,     7.000,     2.000,     0.000,     0.000,     0.000,     0.000,   1,    1,  0,     0.000,     0.000,   0
   191,'1 ',   1,   3,   3,   489.000,    53.000,     0.000,     0.000,     0.000,     0.000,   1,    1,  0,     0.000,     0.000,   0
   192,'1 ',   1,   3,   3,   800.000,    72.000,     0.000,     0.000,     0.000,     0.000,   1,    1,  0,     0.000,     0.000,   0
   196,'1 ',   1,   3,   3,    10.000,     3.000,     0.000,     0.000,     0.000,     0.000,   1,    1,  0,     0.000,     0.000,   0
   197,'1 ',   1,   3,   3,    43.000,    14.000,     0.000,     0.000,     0.000,     0.000,   1,    1,  0,     0.000,     0.000,   0
   198,'1 ',   1,   3,   3,    64.000,    21.000,     0.000,     0.000,     0.000,     0.000,   1,    1,  0,     0.000,     0.000,   0
   199,'1 ',   1,   3,   3,    35.000,    12.000,     0.000,     0.000,     0.000,     0.000,   1,    1,  0,     0.000,     0.000,   0
   200,'1 ',   1,   3,   3,    27.000,    12.000,     0.000,     0.000,     0.000,     0.000,   1,    1,  0,     0.000,     0.000,   0
   201,'1 ',   1,   1,   1,    41.000,    14.000,     0.000,     0.000,     0.000,     0.000,   1,    1,  0,     0.000,     0.000,   0
   202,'1 ',   1,   3,   3,    38.000,    13.000,     0.000,     0.000,     0.000,     0.000,   1,    1,  0,     0.000,     0.000,   0
   203,'1 ',   1,   3,   3,    42.000,    14.000,     0.000,     0.000,     0.000,     0.000,   1,    1,  0,     0.000,     0.000,   0
   204,'1 ',   1,   3,   3,    72.000,    24.000,     0.000,     0.000,     0.000,     0.000,   1,    1,  0,     0.000,     0.000,   0
   205,'1 ',   1,   3,   3,     0.000,    -5.000,     0.000,     0.000,     0.000,     0.000,   1,    1,  0,     0.000,     0.000,   0
   206,'1 ',   1,   3,   3,    12.000,     2.000,     0.000,     0.000,     0.000,     0.000,   1,    1,  0,     0.000,     0.000,   0
   207,'1 ',   1,   1,   1,   -21.000,   -14.200,     0.000,     0.000,     0.000,     0.000,   1,    1,  0,     0.000,     0.000,   0
   208,'1 ',   1,   3,   3,     7.000,     2.000,     0.000,     0.000,     0.000,     0.000,   1,    1,  0,     0.000,     0.000,   0
   209,'1 ',   1,   3,   3,    38.000,    13.000,     0.000,     0.000,     0.000,     0.000,   1,    1,  0,     0.000,     0.000,   0
   211,'1 ',   1,   3,   3,    96.000,     7.000,     0.000,     0.000,     0.000,     0.000,   1,    1,  0,     0.000,     0.000,   0
   214,'1 ',   1,   3,   3,    22.000,    16.000,     0.000,     0.000,     0.000,     0.000,   1,    1,  0,     0.000,     0.000,   0
   215,'1 ',   1,   3,   3,    47.000,    26.000,     0.000,     0.000,     0.000,     0.000,   1,    1,  0,     0.000,     0.000,   0
   216,'1 ',   1,   3,   3,   176.000,   105.000,     0.000,     0.000,     0.000,     0.000,   1,    1,  0,     0.000,     0.000,   0
   217,'1 ',   1,   3,   3,   100.000,    75.000,     0.000,     0.000,     0.000,     0.000,   1,    1,  0,     0.000,     0.000,   0
   218,'1 ',   1,   3,   3,   131.000,    96.000,     0.000,     0.000,     0.000,     0.000,   1,    1,  0,     0.000,     0.000,   0
   220,'1 ',   1,   3,   3,   285.000,   100.000,     0.000,     0.000,     0.000,     0.000,   1,    1,  0,     0.000,     0.000,   0
   221,'1 ',   1,   3,   3,   171.000,    70.000,     0.000,     0.000,     0.000,     0.000,   1,    1,  0,     0.000,     0.000,   0
   222,'1 ',   1,   3,   3,   328.000,   188.000,     0.000,     0.000,     0.000,     0.000,   1,    1,  0,     0.000,     0.000,   0
   223,'1 ',   1,   3,   3,   428.000,   232.000,     0.000,     0.000,     0.000,     0.000,   1,    1,  0,     0.000,     0.000,   0
   224,'1 ',   1,   3,   3,   173.000,    99.000,     0.000,     0.000,     0.000,     0.000,   1,    1,  0,     0.000,     0.000,   0
   225,'1 ',   1,   3,   3,   410.000,    40.000,     0.000,     0.000,     0.000,     0.000,   1,    1,  0,     0.000,     0.000,   0
   227,'1 ',   1,   3,   3,   538.000,   369.000,     0.000,     0.000,     0.000,     0.000,   1,    1,  0,     0.000,     0.000,   0
   228,'1 ',   1,   3,   3,   223.000,   148.000,     0.000,     0.000,     0.000,     0.000,   1,    1,  0,     0.000,     0.000,   0
   229,'1 ',   1,   3,   3,    96.000,    46.000,     0.000,     0.000,     0.000,     0.000,   1,    1,  0,     0.000,     0.000,   0
   231,'1 ',   1,   3,   3,   159.000,   107.000,     0.000,     0.000,     0.000,     0.000,   1,    1,  0,     0.000,     0.000,   0
   232,'1 ',   1,   3,   3,   448.000,   143.000,     0.000,     0.000,     0.000,     0.000,   1,    1,  0,     0.000,     0.000,   0
   233,'1 ',   1,   3,   3,   404.000,   212.000,     0.000,     0.000,     0.000,     0.000,   1,    1,  0,     0.000,     0.000,   0
   234,'1 ',   1,   3,   3,   572.000,   244.000,     0.000,     0.000,     0.000,     0.000,   1,    1,  0,     0.000,     0.000,   0
   235,'1 ',   1,   3,   3,   269.000,   157.000,     0.000,     0.000,     0.000,     0.000,   1,    1,  0,     0.000,     0.000,   0
   238,'1 ',   1,   3,   3,   255.000,   149.000,     0.000,     0.000,     0.000,     0.000,   1,    1,  0,     0.000,     0.000,   0
   243,'1 ',   1,   3,   3,     8.000,     3.000,     0.000,     0.000,     0.000,     0.000,   1,    1,  0,     0.000,     0.000,   0
   245,'1 ',   1,   3,   3,    61.000,    30.000,     0.000,     0.000,     0.000,     0.000,   1,    1,  0,     0.000,     0.000,   0
   246,'1 ',   1,   3,   3,    77.000,    33.000,     0.000,     0.000,     0.000,     0.000,   1,    1,  0,     0.000,     0.000,   0
   247,'1 ',   1,   3,   3,    61.000,    30.000,     0.000,     0.000,     0.000,     0.000,   1,    1,  0,     0.000,     0.000,   0
   248,'1 ',   1,   3,   3,    29.000,    14.000,     0.000,     0.000,     0.000,     0.000,   1,    1,  0,     0.000,     0.000,   0
   249,'1 ',   1,   3,   3,    29.000,    14.000,     0.000,     0.000,     0.000,     0.000,   1,    1,  0,     0.000,     0.000,   0
   250,'1 ',   1,   3,   3,   -23.000,   -17.000,     0.000,     0.000,     0.000,     0.000,   1,    1,  0,     0.000,     0.000,   0
   281,'1 ',   1,   3,   3,   -33.100,   -29.400,     0.000,     0.000,     0.000,     0.000,   1,    1,  0,     0.000,     0.000,   0
   319,'1 ',   1,   1,   1,   115.800,   -24.000,     0.000,     0.000,     0.000,     0.000,   1,    1,  0,     0.000,     0.000,   0
   320,'1 ',   1,   1,   1,     2.400,   -12.600,     0.000,     0.000,     0.000,     0.000,   1,    1,  0,     0.000,     0.000,   0
   322,'1 ',   1,   1,   1,     2.400,    -3.900,     0.000,     0.000,     0.000,     0.000,   1,    1,  0,     0.000,     0.000,   0
   323,'1 ',   1,   1,   1,   -14.900,    26.500,     0.000,     0.000,     0.000,     0.000,   1,    1,  0,     0.000,     0.000,   0
   324,'1 ',   1,   1,   1,    24.700,    -1.200,     0.000,     0.000,     0.000,     0.000,   1,    1,  0,     0.000,     0.000,   0
   526,'1 ',   1,   1,   1,   145.300,   -34.900,     0.000,     0.000,     0.000,     0.000,   1,    1,  0,     0.000,     0.000,   0
   528,'1 ',   1,   1,   1,    28.100,   -20.500,     0.000,     0.000,     0.000,     0.000,   1,    1,  0,     0.000,     0.000,   0
   531,'1 ',   1,   1,   1,    14.000,     2.500,     0.000,     0.000,     0.000,     0.000,   1,    1,  0,     0.000,     0.000,   0
   552,'1 ',   1,   1,   1,   -11.100,    -1.400,     0.000,     0.000,     0.000,     0.000,   1,    1,  0,     0.000,     0.000,   0
   562,'1 ',   1,   1,   1,    50.500,    17.400,     0.000,     0.000,     0.000,     0.000,   1,    1,  0,     0.000,     0.000,   0
   609,'1 ',   1,   1,   1,    29.600,     0.600,     0.000,     0.000,     0.000,     0.000,   1,    1,  0,     0.000,     0.000,   0
   664,'1 ',   1,   3,   3,  -113.700,    76.700,     0.000,     0.000,     0.000,     0.000,   1,    1,  0,     0.000,     0.000,   0
  1190,'1 ',   1,   1,   1,   100.310,    29.170,     0.000,     0.000,     0.000,     0.000,   1,    1,  0,     0.000,     0.000,   0
  1200,'1 ',   1,   1,   1,  -100.000,    34.170,     0.000,     0.000,     0.000,     0.000,   1,    1,  0,     0.000,     0.000,   0
  9003,'1 ',   1,   1,   9,     2.710,     0.940,     0.000,     0.000,     0.000,     0.000,   1,    1,  0,     0.000,     0.000,   0
  9004,'1 ',   1,   1,   9,     0.860,     0.280,     0.000,     0.000,     0.000,     0.000,   1,    1,  0,     0.000,     0.000,   0
  9021,'1 ',   1,   1,   9,     4.750,     1.560,     0.000,     0.000,     0.000,     0.000,   1,    1,  0,     0.000,     0.000,   0
  9022,'1 ',   1,   1,   9,     1.530,     0.530,     0.000,     0.000,     0.000,     0.000,   1,    1,  0,     0.000,     0.000,   0
  9024,'1 ',   1,   1,   9,     1.350,     0.470,     0.000,     0.000,     0.000,     0.000,   1,    1,  0,     0.000,     0.000,   0
  9025,'1 ',   1,   1,   9,     0.450,     0.160,     0.000,     0.000,     0.000,     0.000,   1,    1,  0,     0.000,     0.000,   0
  9026,'1 ',   1,   1,   9,     0.450,     0.160,     0.000,     0.000,     0.000,     0.000,   1,    1,  0,     0.000,     0.000,   0
  9031,'1 ',   1,   1,   9,     1.840,     0.640,     0.000,     0.000,     0.000,     0.000,   1,    1,  0,     0.000,     0.000,   0
  9032,'1 ',   1,   1,   9,     1.390,     0.480,     0.000,     0.000,     0.000,     0.000,   1,    1,  0,     0.000,     0.000,   0
  9033,'1 ',   1,   1,   9,     1.890,     0.650,     0.000,     0.000,     0.000,     0.000,   1,    1,  0,     0.000,     0.000,   0
  9034,'1 ',   1,   1,   9,     1.550,     0.540,     0.000,     0.000,     0.000,     0.000,   1,    1,  0,     0.000,     0.000,   0
  9035,'1 ',   1,   1,   9,     1.660,     0.580,     0.000,     0.000,     0.000,     0.000,   1,    1,  0,     0.000,     0.000,   0
  9036,'1 ',   1,   1,   9,     3.030,     1.000,     0.000,     0.000,     0.000,     0.000,   1,    1,  0,     0.000,     0.000,   0
  9037,'1 ',   1,   1,   9,     1.860,     0.640,     0.000,     0.000,     0.000,     0.000,   1,    1,  0,     0.000,     0.000,   0
  9038,'1 ',   1,   1,   9,     2.580,     0.890,     0.000,     0.000,     0.000,     0.000,   1,    1,  0,     0.000,     0.000,   0
  9041,'1 ',   1,   1,   9,     1.010,     0.350,     0.000,     0.000,     0.000,     0.000,   1,    1,  0,     0.000,     0.000,   0
  9042,'1 ',   1,   1,   9,     0.810,     0.280,     0.000,     0.000,     0.000,     0.000,   1,    1,  0,     0.000,     0.000,   0
  9043,'1 ',   1,   1,   9,     1.600,     0.520,     0.000,     0.000,     0.000,     0.000,   1,    1,  0,     0.000,     0.000,   0
  9052,'1 ',   1,   1,   9,    30.000,    23.000,     0.000,     0.000,     0.000,     0.000,   1,    1,  0,     0.000,     0.000,   0
  9071,'1 ',   1,   1,   9,     1.020,     0.350,     0.000,     0.000,     0.000,     0.000,   1,    1,  0,     0.000,     0.000,   0
  9072,'1 ',   1,   1,   9,     1.020,     0.350,     0.000,     0.000,     0.000,     0.000,   1,    1,  0,     0.000,     0.000,   0
  9121,'1 ',   1,   1,   9,     3.800,     1.250,     0.000,     0.000,     0.000,     0.000,   1,    1,  0,     0.000,     0.000,   0
  9533,'1 ',   1,   1,   9,     1.190,     0.410,     0.000,     0.000,     0.000,     0.000,   1,    1,  0,     0.000,     0.000,   0
0 / END OF LOAD DATA, BEGIN FIXED SHUNT DATA
@!   I,'ID',STATUS,  GL,        BL
   117,'1 ',1,     0.000,   325.000
   120,'1 ',1,     0.000,    55.000
   154,'1 ',1,     0.000,    34.500
   164,'1 ',1,     0.000,  -212.000
   166,'1 ',1,     0.000,  -103.000
   173,'1 ',1,     0.000,    53.000
   179,'1 ',1,     0.000,    45.000
   190,'1 ',1,     0.000,  -150.000
   231,'1 ',1,     0.000,  -300.000
   238,'1 ',1,     0.000,  -150.000
   240,'1 ',1,     0.000,  -140.000
   248,'1 ',1,     0.000,    45.600
  9003,'1 ',1,     0.140,     2.400
  9022,'1 ',1,     0.080,     0.000
  9024,'1 ',1,     0.070,     0.000
  9025,'1 ',1,     0.020,     0.000
  9026,'1 ',1,     0.020,     0.000
  9031,'1 ',1,     0.100,     0.000
  9032,'1 ',1,     0.070,     0.000
  9033,'1 ',1,     0.100,     0.000
  9034,'1 ',1,     0.080,     1.720
  9035,'1 ',1,     0.090,     0.000
  9037,'1 ',1,     0.100,     0.000
  9038,'1 ',1,     0.140,     0.000
  9041,'1 ',1,     0.050,     0.000
  9042,'1 ',1,     0.040,     0.000
  9071,'1 ',1,     0.050,     0.000
  9072,'1 ',1,     0.050,     0.000
  9533,'1 ',1,     0.100,     0.000
0 / END OF FIXED SHUNT DATA, BEGIN GENERATOR DATA
@!   I,'ID',      PG,        QG,        QT,        QB,     VS,    IREG,     MBASE,     ZR,         ZX,         RT,         XT,     GTAP,STAT, RMPCT,      PT,        PB,    O1,    F1,  O2,    F2,  O3,    F3,  O4,    F4,WMOD,  WPF
     8,'1 ',    -5.000,    12.229,    10.000,   -10.000,1.01530,     0,   100.000, 0.00000E+0, 1.00000E+0, 0.00000E+0, 0.00000E+0,1.00000,1,  100.0,  9999.000, -9999.000,   1,1.0000
    10,'1 ',    -5.000,    20.494,    20.000,   -20.000,1.02050,     0,   100.000, 0.00000E+0, 1.00000E+0, 0.00000E+0, 0.00000E+0,1.00000,1,  100.0,  9999.000, -9999.000,   1,1.0000
    20,'1 ',   -10.000,    21.602,    20.000,   -20.000,1.00100,     0,   100.000, 0.00000E+0, 1.00000E+0, 0.00000E+0, 0.00000E+0,1.00000,1,  100.0,  9999.000, -9999.000,   1,1.0000
    63,'1 ',     0.000,    24.451,    25.000,   -25.000,0.95830,     0,   100.000, 0.00000E+0, 1.00000E+0, 0.00000E+0, 0.00000E+0,1.00000,1,  100.0,  9999.000, -9999.000,   1,1.0000
    76,'1 ',     0.000,    34.723,    35.000,    12.000,0.96320,     0,   100.000, 0.00000E+0, 1.00000E+0, 0.00000E+0, 0.00000E+0,1.00000,1,  100.0,  9999.000, -9999.000,   1,1.0000
    84,'1 ',   375.000,   133.064,   240.000,  -240.000,1.02500,     0,   100.000, 0.00000E+0, 1.00000E+0, 0.00000E+0, 0.00000E+0,1.00000,1,  100.0,  9999.000, -9999.000,   1,1.0000
    91,'1 ',   155.000,    44.602,    96.000,   -11.000,1.05200,     0,   100.000, 0.00000E+0, 1.00000E+0, 0.00000E+0, 0.00000E+0,1.00000,1,  100.0,  9999.000, -9999.000,   1,1.0000
    92,'1 ',   290.000,    31.359,   153.000,  -153.000,1.05200,     0,   100.000, 0.00000E+0, 1.00000E+0, 0.00000E+0, 0.00000E+0,1.00000,1,  100.0,  9999.000, -9999.000,   1,1.0000
    98,'1 ',    68.000,   -10.546,    56.000,   -30.000,1.00000,     0,   100.000, 0.00000E+0, 1.00000E+0, 0.00000E+0, 0.00000E+0,1.00000,1,  100.0,  9999.000, -9999.000,   1,1.0000
   108,'1 ',   117.000,    21.049,    77.000,   -24.000,0.99000,     0,   100.000, 0.00000E+0, 1.00000E+0, 0.00000E+0, 0.00000E+0,1.00000,1,  100.0,  9999.000, -9999.000,   1,1.0000
   119,'1 ',  1930.000,  1169.433,  1500.000,  -500.000,1.04350,     0,   100.000, 0.00000E+0, 1.00000E+0, 0.00000E+0, 0.00000E+0,1.00000,1,  100.0,  9999.000, -9999.000,   1,1.0000
   124,'1 ',   240.000,   174.684,   120.000,   -60.000,1.02330,     0,   100.000, 0.00000E+0, 1.00000E+0, 0.00000E+0, 0.00000E+0,1.00000,1,  100.0,  9999.000, -9999.000,   1,1.0000
   125,'1 ',     0.000,   329.654,   200.000,   -25.000,1.01030,     0,   100.000, 0.00000E+0, 1.00000E+0, 0.00000E+0, 0.00000E+0,1.00000,1,  100.0,  9999.000, -9999.000,   1,1.0000
   138,'1 ',  -925.034,   367.067,   350.000,  -125.000,1.05500,     0,   100.000, 0.00000E+0, 1.00000E+0, 0.00000E+0, 0.00000E+0,1.00000,1,  100.0,  9999.000, -9999.000,   1,1.0000
   141,'1 ',   281.000,    67.303,    75.000,   -50.000,1.05100,     0,   100.000, 0.00000E+0, 1.00000E+0, 0.00000E+0, 0.00000E+0,1.00000,1,  100.0,  9999.000, -9999.000,   1,1.0000
   143,'1 ',   696.000,   123.316,   300.000,  -100.000,1.04350,     0,   100.000, 0.00000E+0, 1.00000E+0, 0.00000E+0, 0.00000E+0,1.00000,1,  100.0,  9999.000, -9999.000,   1,1.0000
   146,'1 ',    84.000,    35.680,    35.000,   -15.000,1.05280,     0,   100.000, 0.00000E+0, 1.00000E+0, 0.00000E+0, 0.00000E+0,1.00000,1,  100.0,  9999.000, -9999.000,   1,1.0000
   147,'1 ',   217.000,   -49.087,   100.000,   -50.000,1.05280,     0,   100.000, 0.00000E+0, 1.00000E+0, 0.00000E+0, 0.00000E+0,1.00000,1,  100.0,  9999.000, -9999.000,   1,1.0000
   149,'1 ',   103.000,    50.333,    50.000,   -25.000,1.07350,     0,   100.000, 0.00000E+0, 1.00000E+0, 0.00000E+0, 0.00000E+0,1.00000,1,  100.0,  9999.000, -9999.000,   1,1.0000
   152,'1 ',   372.000,   -57.524,   175.000,   -50.000,1.05350,     0,   100.000, 0.00000E+0, 1.00000E+0, 0.00000E+0, 0.00000E+0,1.00000,1,  100.0,  9999.000, -9999.000,   1,1.0000
   153,'1 ',   216.000,   -22.264,    90.000,   -50.000,1.04350,     0,   100.000, 0.00000E+0, 1.00000E+0, 0.00000E+0, 0.00000E+0,1.00000,1,  100.0,  9999.000, -9999.000,   1,1.0000
   156,'1 ',     0.000,    19.047,    15.000,   -10.000,0.96300,     0,   100.000, 0.00000E+0, 1.00000E+0, 0.00000E+0, 0.00000E+0,1.00000,1,  100.0,  9999.000, -9999.000,   1,1.0000
   170,'1 ',   205.000,    88.035,    90.000,   -40.000,0.92900,     0,   100.000, 0.00000E+0, 1.00000E+0, 0.00000E+0, 0.00000E+0,1.00000,1,  100.0,  9999.000, -9999.000,   1,1.0000
   171,'1 ',     0.000,   155.205,   150.000,   -50.000,0.98290,     0,   100.000, 0.00000E+0, 1.00000E+0, 0.00000E+0, 0.00000E+0,1.00000,1,  100.0,  9999.000, -9999.000,   1,1.0000
   176,'1 ',   228.000,    39.964,    90.000,   -45.000,1.05220,     0,   100.000, 0.00000E+0, 1.00000E+0, 0.00000E+0, 0.00000E+0,1.00000,1,  100.0,  9999.000, -9999.000,   1,1.0000
   177,'1 ',    84.000,    34.960,    35.000,   -15.000,1.00770,     0,   100.000, 0.00000E+0, 1.00000E+0, 0.00000E+0, 0.00000E+0,1.00000,1,  100.0,  9999.000, -9999.000,   1,1.0000
   185,'1 ',   200.000,    32.352,    80.000,   -50.000,1.05220,     0,   100.000, 0.00000E+0, 1.00000E+0, 0.00000E+0, 0.00000E+0,1.00000,1,  100.0,  9999.000, -9999.000,   1,1.0000
   186,'1 ',  1200.000,   280.855,   400.000,  -100.000,1.06500,     0,   100.000, 0.00000E+0, 1.00000E+0, 0.00000E+0, 0.00000E+0,1.00000,1,  100.0,  9999.000, -9999.000,   1,1.0000
   187,'1 ',  1200.000,   350.656,   400.000,  -100.000,1.06500,     0,   100.000, 0.00000E+0, 1.00000E+0, 0.00000E+0, 0.00000E+0,1.00000,1,  100.0,  9999.000, -9999.000,   1,1.0000
   190,'1 ',   475.000,   -52.034,   300.000,  -300.000,1.05510,     0,   100.000, 0.00000E+0, 1.00000E+0, 0.00000E+0, 0.00000E+0,1.00000,1,  100.0,  9999.000, -9999.000,   1,1.0000
   191,'1 ',  1973.000,   689.512,  1000.000, -1000.000,1.04350,     0,   100.000, 0.00000E+0, 1.00000E+0, 0.00000E+0, 0.00000E+0,1.00000,1,  100.0,  9999.000, -9999.000,   1,1.0000
   198,'1 ',   424.000,   101.177,   260.000,  -260.000,1.01500,     0,   100.000, 0.00000E+0, 1.00000E+0, 0.00000E+0, 0.00000E+0,1.00000,1,  100.0,  9999.000, -9999.000,   1,1.0000
   213,'1 ',   272.000,    44.117,   150.000,  -150.000,1.01000,     0,   100.000, 0.00000E+0, 1.00000E+0, 0.00000E+0, 0.00000E+0,1.00000,1,  100.0,  9999.000, -9999.000,   1,1.0000
   220,'1 ',   100.000,    36.966,    60.000,   -60.000,1.00800,     0,   100.000, 0.00000E+0, 1.00000E+0, 0.00000E+0, 0.00000E+0,1.00000,1,  100.0,  9999.000, -9999.000,   1,1.0000
   221,'1 ',   450.000,   168.727,   320.000,  -320.000,1.00000,     0,   100.000, 0.00000E+0, 1.00000E+0, 0.00000E+0, 0.00000E+0,1.00000,1,  100.0,  9999.000, -9999.000,   1,1.0000
   222,'1 ',   250.000,   143.980,   300.000,  -300.000,1.05000,     0,   100.000, 0.00000E+0, 1.00000E+0, 0.00000E+0, 0.00000E+0,1.00000,1,  100.0,  9999.000, -9999.000,   1,1.0000
   227,'1 ',   303.000,   254.316,   300.000,  -300.000,1.00000,     0,   100.000, 0.00000E+0, 1.00000E+0, 0.00000E+0, 0.00000E+0,1.00000,1,  100.0,  9999.000, -9999.000,   1,1.0000
   230,'1 ',   345.000,    42.744,   250.000,  -250.000,1.04000,     0,   100.000, 0.00000E+0, 1.00000E+0, 0.00000E+0, 0.00000E+0,1.00000,1,  100.0,  9999.000, -9999.000,   1,1.0000
   233,'1 ',   300.000,   133.101,   500.000,  -500.000,1.00000,     0,   100.000, 0.00000E+0, 1.00000E+0, 0.00000E+0, 0.00000E+0,1.00000,1,  100.0,  9999.000, -9999.000,   1,1.0000
   236,'1 ',   600.000,   300.878,   300.000,  -300.000,1.01650,     0,   100.000, 0.00000E+0, 1.00000E+0, 0.00000E+0, 0.00000E+0,1.00000,1,  100.0,  9999.000, -9999.000,   1,1.0000
   238,'1 ',   250.000,   164.437,   200.000,  -200.000,1.01000,     0,   100.000, 0.00000E+0, 1.00000E+0, 0.00000E+0, 0.00000E+0,1.00000,1,  100.0,  9999.000, -9999.000,   1,1.0000
   239,'1 ',   550.000,    68.385,   400.000,  -400.000,1.00000,     0,   100.000, 0.00000E+0, 1.00000E+0, 0.00000E+0, 0.00000E+0,1.00000,1,  100.0,  9999.000, -9999.000,   1,1.0000
   241,'1 ',   574.784,   -32.853,   600.000,  -600.000,1.05000,     0,   100.000, 0.00000E+0, 1.00000E+0, 0.00000E+0, 0.00000E+0,1.00000,1,  100.0,  9999.000, -9999.000,   1,1.0000
   242,'1 ',   170.000,    52.347,   100.000,    40.000,0.99300,     0,   100.000, 0.00000E+0, 1.00000E+0, 0.00000E+0, 0.00000E+0,1.00000,1,  100.0,  9999.000, -9999.000,   1,1.0000
   243,'1 ',    84.000,    52.323,    80.000,    40.000,1.01000,     0,   100.000, 0.00000E+0, 1.00000E+0, 0.00000E+0, 0.00000E+0,1.00000,1,  100.0,  9999.000, -9999.000,   1,1.0000
  7001,'1 ',   467.000,   140.365,   210.000,  -210.000,1.05070,     0,   100.000, 0.00000E+0, 1.00000E+0, 0.00000E+0, 0.00000E+0,1.00000,1,  100.0,  9999.000, -9999.000,   1,1.0000
  7002,'1 ',   623.000,    93.917,   280.000,  -280.000,1.05070,     0,   100.000, 0.00000E+0, 1.00000E+0, 0.00000E+0, 0.00000E+0,1.00000,1,  100.0,  9999.000, -9999.000,   1,1.0000
  7003,'1 ',  1210.000,   423.938,   420.000,  -420.000,1.03230,     0,   100.000, 0.00000E+0, 1.00000E+0, 0.00000E+0, 0.00000E+0,1.00000,1,  100.0,  9999.000, -9999.000,   1,1.0000
  7011,'1 ',   234.000,    51.890,   100.000,  -100.000,1.01450,     0,   100.000, 0.00000E+0, 1.00000E+0, 0.00000E+0, 0.00000E+0,1.00000,1,  100.0,  9999.000, -9999.000,   1,1.0000
  7012,'1 ',   372.000,   201.018,   224.000,  -224.000,1.05070,     0,   100.000, 0.00000E+0, 1.00000E+0, 0.00000E+0, 0.00000E+0,1.00000,1,  100.0,  9999.000, -9999.000,   1,1.0000
  7017,'1 ',   330.000,   350.118,   350.000,     0.000,1.05070,     0,   100.000, 0.00000E+0, 1.00000E+0, 0.00000E+0, 0.00000E+0,1.00000,1,  100.0,  9999.000, -9999.000,   1,1.0000
  7023,'1 ',   185.000,     6.392,   120.000,     0.000,1.05070,     0,   100.000, 0.00000E+0, 1.00000E+0, 0.00000E+0, 0.00000E+0,1.00000,1,  100.0,  9999.000, -9999.000,   1,1.0000
  7024,'1 ',   410.000,   106.907,   224.000,  -224.000,1.02900,     0,   100.000, 0.00000E+0, 1.00000E+0, 0.00000E+0, 0.00000E+0,1.00000,1,  100.0,  9999.000, -9999.000,   1,1.0000
  7039,'1 ',   500.000,   156.087,   200.000,  -200.000,1.05000,     0,   100.000, 0.00000E+0, 1.00000E+0, 0.00000E+0, 0.00000E+0,1.00000,1,  100.0,  9999.000, -9999.000,   1,1.0000
  7044,'1 ',    37.000,    41.409,    42.000,     0.000,1.01450,     0,   100.000, 0.00000E+0, 1.00000E+0, 0.00000E+0, 0.00000E+0,1.00000,1,  100.0,  9999.000, -9999.000,   1,1.0000
  7049,'1 ',   454.654,    39.657,     0.000,     0.000,1.05070,     0,   100.000, 0.00000E+0, 1.00000E+0, 0.00000E+0, 0.00000E+0,1.00000,1,  100.0,  9999.000, -9999.000,   1,1.0000
  7055,'1 ',    45.000,    24.764,    25.000,     0.000,0.99670,     0,   100.000, 0.00000E+0, 1.00000E+0, 0.00000E+0, 0.00000E+0,1.00000,1,  100.0,  9999.000, -9999.000,   1,1.0000
  7057,'1 ',   165.000,    89.228,    90.000,   -90.000,1.02120,     0,   100.000, 0.00000E+0, 1.00000E+0, 0.00000E+0, 0.00000E+0,1.00000,1,  100.0,  9999.000, -9999.000,   1,1.0000
...